*Heading
** Job name: C3D10Fine Model name: Model-1
** Generated by: Abaqus/CAE 2022
*NODE, NSET=NALL
      1,          10.,           1.,  0.100000001
      2,          10.,           0.,  0.100000001
      3,          10.,           0.,           0.
      4,          10.,           1.,           0.
      5,           0.,           0.,  0.100000001
      6,           0.,           0.,           0.
      7,           0.,           1.,           0.
      8,           0.,           1.,  0.100000001
      9,          10.,  0.899999976,  0.100000001
     10,          10.,  0.800000012,  0.100000001
     11,          10.,  0.699999988,  0.100000001
     12,          10.,  0.600000024,  0.100000001
     13,          10.,          0.5,  0.100000001
     14,          10.,  0.400000006,  0.100000001
     15,          10.,  0.300000012,  0.100000001
     16,          10.,  0.200000003,  0.100000001
     17,          10.,  0.100000001,  0.100000001
     18,          10.,           0., 0.0799999982
     19,          10.,           0., 0.0599999987
     20,          10.,           0., 0.0399999991
** ... 26085 like lines cut
*ELEMENT, TYPE=C3D10, ELSET=EALL
    1,  1885,  3103,  1984,  1985,  4125,  4124,  4123,  4127,  4126,  4128
    2,  3104,  1751,  2104,   274,  4131,  4130,  4129,  4133,  4132,  4134
    3,   269,  1756,  2100,  3105,  4137,  4136,  4135,  4139,  4138,  4140
    4,  3106,  1797,  1896,  3107,  4143,  4142,  4141,  4145,  4144,  4146
    5,  3108,  3109,  3110,  2310,  4149,  4148,  4147,  4151,  4150,  4152
    6,   172,   853,   173,  3111,  4155,  4154,  4153,  4157,  4156,  4158
    7,   157,   968,   869,  3112,  4161,  4160,  4159,  4163,  4162,  4164
    8,   900,  3113,   226,  3114,  4167,  4166,  4165,  4169,  4168,  4170
    9,  3114,   226,  3115,   800,  4170,  4172,  4171,  4174,  4173,  4175
   10,  3116,  2319,  3110,  3117,  4178,  4177,  4176,  4180,  4179,  4181
   11,  3118,  3119,  2644,  3120,  4184,  4183,  4182,  4186,  4185,  4187
   12,  2644,  3120,  2653,  3118,  4187,  4189,  4188,  4182,  4186,  4190
   13,   916,  3121,   210,  3122,  4193,  4192,  4191,  4195,  4194,  4196
   14,  3123,  2093,   263,   262,  4199,  4198,  4197,  4201,  4200,  4202
   15,  3124,   984,   142,   141,  4205,  4204,  4203,  4207,  4206,  4208
   16,  3125,  3126,  1486,  3033,  4211,  4210,  4209,  4213,  4212,  4214
   17,  3125,  3127,  3042,  3043,  4217,  4216,  4215,  4219,  4218,  4220
   18,  3125,  3128,  1387,  3034,  4223,  4222,  4221,  4225,  4224,  4226
   19,  3125,  3034,  3129,  3043,  4225,  4228,  4227,  4219,  4229,  4230
   20,  3125,  1486,  3128,  3033,  4209,  4231,  4223,  4213,  4214,  4232
** ... 14742 like lines cut

*Nset, nset=Load
2, 17, 16, 15, 14, 13, 12, 11, 10, 9, 1
*Nset, nset=Nfix1
     5,     6,     7,     8,   134,   135,   136,   137,   237,   238,   239,   240,   241,   242,   243,   244
   245,   444,   445,   446,   447,   448,   449,   450,   451,   452,   453,   454,   455,   456,  3067,  3068
  3069,  3070,  3071,  3072,  3073,  3074,  3075,  3076,  3077,  3078,  3079,  3080,  3081,  3082,  3083,  3084
  3085,  3086,  3087,  3088,  3089,  3090,  3091,  3092,  3093,  3094,  3095,  3096,  3097,  3098,  3099,  3100
  3101,  3102,  4264,  4266,  4268,  4329,  4331,  4333,  4395,  4397,  4407,  4409,  4411,  4444,  4531,  4533
  4535,  4561,  4563,  4565,  4631,  4706,  4716,  4718,  4720,  4866,  4868,  4962,  4964,  5012,  5014,  5016
  5120,  5122,  5179,  5235,  5237,  5239,  5241,  5251,  5253,  5336,  5354,  5356,  5358,  5470,  5471,  5534
  5535,  5537,  5593,  5595,  5597,  5694,  5722,  5724,  5725,  5726,  5825,  5867,  5869,  5917,  5918,  5920
  6266,  6267,  6379,  6582,  6778,  6779,  6780,  6782,  6800,  6802,  6804,  6806,  6808,  6837,  6841,  6842
  6871,  6880,  6882,  6913,  6915,  6917,  7330,  7332,  7350,  7352,  7355,  7613,  7762,  7763,  7764,  8045
  8064,  8065,  8067,  8092,  8753,  8800,  8802,  8804,  8867,  8868,  8869,  9023,  9026,  9119,  9121,  9344
  9456,  9690,  9707,  9779,  9781,  9782,  9866, 10160, 10177, 10178, 10179, 10213, 10731, 10732, 10736, 11220
 11234, 11235, 11236, 13436, 15230, 15232, 16241, 16244, 16251, 17274, 17276, 17284, 17287, 17288, 17290, 17805
 17806, 17809, 18041, 18042, 19223, 19227, 19228, 19230, 20771, 20772, 20773, 21392, 22835, 23566, 23569, 23603
 23604, 23605, 23606, 23820, 24104, 25204, 25831
** 

*BOUNDARY
Nfix1,1
Nfix1,2
Nfix1,3
**
*MATERIAL,NAME=EL
*ELASTIC
1.2e+06,0.
**
*SOLID SECTION, ELSET=EALL, MATERIAL=EL

*NSET, NSET=DES
1

*DESIGNVARIABLES, TYPE=COORDINATE
DES

*SOLID SECTION, ELSET=EALL, MATERIAL=EL
*STEP
*STATIC, DIRECT
0.1, 1.0
*CONTROLS, PARAMETERS=TIME INCREMENTATION
10, 10, 10, 100, 10, 4, 12, 20, , , ,

*CLOAD
2,   3, 0.00000
17,  3, 0.1
16,  3, 0.1
15,  3, 0.1
14,  3, 0.1
13,  3, 0.1
12,  3, 0.1
11,  3, 0.1
10,  3, 0.1
9,   3, 0.1
1,   3, 0.00000
*END STEP

*NODE FILE
 U
***EL FILE
** S, E
*END STEP


*STEP
*SENSITIVITY
*OBJECTIVE
STRAINENERGY
*END STEP
