*Heading
** Job name: NLCB_C3D10 Model name: Model-1
** Generated by: Abaqus/CAE 2022
*NODE, NSET=NALL
      1,           0.,           0.,         0.25
      2,           0.,  0.100000001,         0.25
      3,           0.,  0.100000001,           0.
      4,           0.,           0.,           0.
      5,           1.,           0.,         0.25
      6,           1.,  0.100000001,         0.25
      7,           1.,  0.100000001,        0.125
      8,           1.,  0.100000001,           0.
      9,           1.,           0.,           0.
     10,           1.,           0.,        0.125
     11,           0., 0.0250000004,         0.25
     12,           0., 0.0500000007,         0.25
     13,           0.,  0.075000003,         0.25
     14,           0.,  0.100000001,  0.224999994
     15,           0.,  0.100000001,  0.200000003
     16,           0.,  0.100000001,  0.174999997
     17,           0.,  0.100000001,  0.150000006
     18,           0.,  0.100000001,        0.125
     19,           0.,  0.100000001,  0.100000001
     20,           0.,  0.100000001,  0.075000003
** ... 2455 like lines cut
*ELEMENT, TYPE=C3D4, ELSET=EALL
    1, 1203, 1204, 1205, 1206
    2, 1203, 1207, 1208, 1205
    3, 1203, 1205, 1209, 1206
    4, 1203, 1210, 1211, 1212
    5, 1203, 1211, 1213, 1214
    6, 1203, 1213, 1215, 1209
    7, 1203, 1211, 1214, 1216
    8, 1217, 1218, 1219, 1220
    9, 1221, 1222, 1223, 1224
   10, 1221, 1225, 1226, 1227
   11, 1224, 1228, 1226, 1221
   12, 1221, 1229, 1230, 1227
   13, 1221, 1229, 1231, 1230
   14, 1221, 1231, 1229, 1223
   15, 1232, 1233, 1234, 1235
   16, 1233, 1235, 1232, 1236
   17, 1237, 1238, 1239, 1240
   18,  435, 1234, 1241, 1233
   19, 1233, 1242, 1241, 1243
   20, 1233,  434, 1235, 1244
** ... 10955 like lines cut
*NSET, NSET=FIX
   1,   2,   3,   4,  11,  12,  13,  14,  15,  16,  17,  18,  19,  20,  21,  22
  23,  24,  25,  26,  27,  28,  29,  30,  31,  32,  33,  34, 216, 217, 218, 219
 220, 221, 222, 223, 224, 225, 226, 227, 228, 229, 230, 231, 232, 233, 234, 235
 236, 237, 238, 239, 240, 241, 242

** 

*BOUNDARY
FIX,1
FIX,2
FIX,3
FIX,4
FIX,5
FIX,6
** MATERIALS
*MATERIAL,NAME=EL
*ELASTIC
3e+09, 0.4
*SOLID SECTION, ELSET=EALL, MATERIAL=EL
*NSET, NSET=DES
1

*DESIGNVARIABLES, TYPE=COORDINATE
DES
*STEP, NLGEOM
*STATIC
*CLOAD
10,  1,      0.00
213, 1,  45646.17
214, 1,  52707.66
215, 1,  45646.17
7,   1,      0.00

*END STEP

*NODE FILE
 U
***EL FILE
** S, E
*END STEP


*STEP
*SENSITIVITY
*OBJECTIVE
STRAINENERGY
*END STEP