*Heading
** Job name: NLCB_C3D10 Model name: Model-1
** Generated by: Abaqus/CAE 2022
*NODE, NSET=NALL
      1,           0.,           0.,         0.25
      2,           0.,  0.100000001,         0.25
      3,           0.,  0.100000001,           0.
      4,           0.,           0.,           0.
      5,           1.,           0.,         0.25
      6,           1.,  0.100000001,         0.25
      7,           1.,  0.100000001,        0.125
      8,           1.,  0.100000001,           0.
      9,           1.,           0.,           0.
     10,           1.,           0.,        0.125
     11,           0., 0.0250000004,         0.25
     12,           0., 0.0500000007,         0.25
     13,           0.,  0.075000003,         0.25
     14,           0.,  0.100000001,  0.224999994
     15,           0.,  0.100000001,  0.200000003
     16,           0.,  0.100000001,  0.174999997
     17,           0.,  0.100000001,  0.150000006
     18,           0.,  0.100000001,        0.125
     19,           0.,  0.100000001,  0.100000001
     20,           0.,  0.100000001,  0.075000003
** ... 17104 like lines cut
*ELEMENT, TYPE=C3D10, ELSET=EALL
    1,  1203,  1204,  1205,  1206,  2478,  2477,  2476,  2480,  2479,  2481
    2,  1203,  1207,  1208,  1205,  2484,  2483,  2482,  2476,  2485,  2486
    3,  1203,  1205,  1209,  1206,  2476,  2488,  2487,  2480,  2481,  2489
    4,  1203,  1210,  1211,  1212,  2492,  2491,  2490,  2494,  2493,  2495
    5,  1203,  1211,  1213,  1214,  2490,  2497,  2496,  2499,  2498,  2500
    6,  1203,  1213,  1215,  1209,  2496,  2502,  2501,  2487,  2503,  2504
    7,  1203,  1211,  1214,  1216,  2490,  2498,  2499,  2506,  2505,  2507
    8,  1217,  1218,  1219,  1220,  2510,  2509,  2508,  2512,  2511,  2513
    9,  1221,  1222,  1223,  1224,  2516,  2515,  2514,  2518,  2517,  2519
   10,  1221,  1225,  1226,  1227,  2522,  2521,  2520,  2524,  2523,  2525
   11,  1224,  1228,  1226,  1221,  2528,  2527,  2526,  2518,  2529,  2520
   12,  1221,  1229,  1230,  1227,  2532,  2531,  2530,  2524,  2533,  2534
   13,  1221,  1229,  1231,  1230,  2532,  2536,  2535,  2530,  2531,  2537
   14,  1221,  1231,  1229,  1223,  2535,  2536,  2532,  2514,  2538,  2539
   15,  1232,  1233,  1234,  1235,  2542,  2541,  2540,  2544,  2543,  2545
   16,  1233,  1235,  1232,  1236,  2543,  2544,  2542,  2547,  2546,  2548
   17,  1237,  1238,  1239,  1240,  2551,  2550,  2549,  2553,  2552,  2554
   18,   435,  1234,  1241,  1233,  2557,  2556,  2555,  2558,  2541,  2559
   19,  1233,  1242,  1241,  1243,  2561,  2560,  2559,  2563,  2562,  2564
   20,  1233,   434,  1235,  1244,  2566,  2565,  2543,  2568,  2567,  2569
** ... 10955 like lines cut
*NSET, NSET=FIX
     1,     2,     3,     4,    11,    12,    13,    14,    15,    16,    17,    18,    19,    20,    21,    22
    23,    24,    25,    26,    27,    28,    29,    30,    31,    32,    33,    34,   216,   217,   218,   219
   220,   221,   222,   223,   224,   225,   226,   227,   228,   229,   230,   231,   232,   233,   234,   235
   236,   237,   238,   239,   240,   241,   242,  2687,  2709,  2711,  2713,  4440,  4447,  6249,  7477,  7489
  7551,  7553,  7555,  7602,  7604,  7606,  7927,  7933,  7934,  7936,  7952,  8258,  8260,  8261,  8271,  8273
  8275,  8277,  8278,  8280,  8329,  8331,  8364,  8365,  8366,  8376,  8378,  8380,  8392,  8394,  8396,  8404
  8405,  8407,  8409,  8411,  8426,  8428,  8430,  8432,  8440,  8443,  8483,  8485,  8499,  8504,  8514,  8516
  8518,  8520,  8523,  8525,  8527,  8540,  8557,  8559,  8615,  8617,  8627,  8629,  8632,  8633,  8676,  8678
  8679,  8683,  8685,  8686,  8689,  8691,  8692,  8699,  8700,  8716,  8717,  8732,  8740,  8742,  8748,  8757
  8759,  8761,  8763,  8781,  8783,  8784,  8790,  8791,  8799,  8820,  8822,  8824,  8843,  8844,  8850,  8865
  8866,  8907,  8913,  8919,  8920,  8930,  8970,  8972,  8986,  9024,  9025,  9043,  9044, 10319, 12129, 12566
 12567, 12762, 12764, 12987, 12988, 13015, 13388, 13735, 13738, 15764, 16518, 17022, 17038

** 

*BOUNDARY
FIX,1
FIX,2
FIX,3
FIX,4
FIX,5
FIX,6
** MATERIALS
*MATERIAL,NAME=EL
*ELASTIC
3e+09, 0.4
*SOLID SECTION, ELSET=EALL, MATERIAL=EL
*NSET, NSET=DES
1

*DESIGNVARIABLES, TYPE=COORDINATE
DES
*STEP, NLGEOM, INC=200, STABILIZE=0.0002
*STATIC
0.1, 1.0, 1e-5, 0.5
*CONTROLS, PARAMETERS=TIME INCREMENTATION
, , , , , , 12, 50, , ,
*CONTROLS, PARAMETERS=FIELD
5e-3, 5e-3, , , , ,
*CONTROLS, PARAMETERS=LINE SEARCH
10, , , ,
*STATIC
*CLOAD
10,    3,      0.00
13759, 3,  6623.85
213,   3,  8672.65
8223,  3,  9696.32
214,   3,  10014.32
9030,  3,  9696.32
215,   3,  8672.65
11977, 3,  6623.85
7,     3,      0.00

*END STEP

*NODE FILE
 U
***EL FILE
** S, E
*END STEP


*STEP
*SENSITIVITY
*OBJECTIVE
STRAINENERGY
*END STEP