*Heading
** Job name: Job-1 Model name: Model-1
** Generated by: Abaqus/CAE 2022
*NODE, NSET=NALL
      1,          10.,           1.,  0.100000001
      2,          10.,           0.,  0.100000001
      3,          10.,           0.,           0.
      4,          10.,           1.,           0.
      5,           0.,           0.,  0.100000001
      6,           0.,           0.,           0.
      7,           0.,           1.,           0.
      8,           0.,           1.,  0.100000001
      9,          10.,          0.5,  0.100000001
     10,          10.,          0.5,           0.
     11,          9.5,           0.,  0.100000001
     12,           9.,           0.,  0.100000001
     13,          8.5,           0.,  0.100000001
     14,           8.,           0.,  0.100000001
     15,          7.5,           0.,  0.100000001
     16,           7.,           0.,  0.100000001
     17,          6.5,           0.,  0.100000001
     18,           6.,           0.,  0.100000001
     19,          5.5,           0.,  0.100000001
     20,           5.,           0.,  0.100000001
** ... 595 like lines cut
*ELEMENT, TYPE=C3D10, ELSET=EALL
  1,  48,  89, 126,   3, 129, 128, 127, 131, 130, 132
  2,  63, 122,  93,  64, 135, 134, 133, 137, 136, 138
  3, 120,  81,  62,  80, 141, 140, 139, 143, 142, 144
  4, 121,  62,  81,  63, 146, 140, 145, 148, 147, 149
  5,  42, 120,  95,  96, 152, 151, 150, 154, 153, 155
  6, 120,  96, 119,  61, 153, 157, 156, 159, 158, 160
  7,  18, 119,  96, 118, 162, 157, 161, 164, 163, 165
  8,  18,  97, 118,  96, 167, 166, 164, 161, 168, 165
  9,  40,  97, 118,  18, 170, 166, 169, 171, 167, 164
 10,  79,  96, 119, 118, 173, 157, 172, 174, 165, 163
 11,  19,  20, 117,  39, 177, 176, 175, 179, 178, 180
 12, 117,  99, 116,  58, 183, 182, 181, 185, 184, 186
 13, 117, 116,  99,  39, 181, 182, 183, 180, 187, 188
 14,  59, 118,  97,  60, 190, 166, 189, 192, 191, 193
 15, 117,  58,  77,  59, 185, 195, 194, 197, 196, 198
 16, 117,  78,  59,  77, 200, 199, 197, 194, 201, 198
 17, 116,  57,  76,  58, 204, 203, 202, 186, 205, 206
 18, 115,  38,  99, 116, 209, 208, 207, 211, 210, 182
 19, 115,  57,  76, 116, 213, 203, 212, 211, 204, 202
 20,  22,  36,  23, 114, 216, 215, 214, 218, 217, 219
** ... 220 like lines cut
**
*NSET, NSET=Nfix1
   5,   6,   7,   8,  49,  88, 319, 321, 423, 424, 426, 429, 430, 554, 555
*NSET, NSET=Load
   1,   2,  3,  4, 9, 10
*BOUNDARY
Nfix1,1
Nfix1,2
Nfix1,3
Nfix1,4
Nfix1,5
Nfix1,6
**
*MATERIAL,NAME=EL
*ELASTIC
1.2e+06,0.
**
*SOLID SECTION, ELSET=EALL, MATERIAL=EL

*NSET, NSET=DES
1

*DESIGNVARIABLES, TYPE=COORDINATE
DES

*SOLID SECTION, ELSET=EALL, MATERIAL=EL
*AMPLITUDE, NAME=RAMP
0.0, 0.0
1.0, 1.0
*STEP
*STATIC, DIRECT
0.1, 1.0
*CONTROLS, PARAMETERS=TIME INCREMENTATION
10, 10, 10, 50, 10, 4, 12, 20, , , ,
0.25, 0.5, 0.75, 0.85, , , ,
*CONTROLS, PARAMETERS=FIELD
0.005, 0.005, 1.0, 0.0, 0.02, 1e-5
*CLOAD, AMPLITUDE=RAMP
Load, 3, 0.2
*END STEP

*NODE FILE
 U
***EL FILE
** S, E
*END STEP


*STEP
*SENSITIVITY
*OBJECTIVE
STRAINENERGY
*END STEP

