**Block file for optimization
*INCLUDE, INPUT=/home/prateek/Documents/GitHub/Large-Scale-Topology-Optimization/TestCases/LBeam/mesh.nam
*INCLUDE, INPUT=/home/prateek/Documents/GitHub/Large-Scale-Topology-Optimization/TestCases/LBeam/Nfix1.nam
*INCLUDE, INPUT=/home/prateek/Documents/GitHub/Large-Scale-Topology-Optimization/TestCases/LBeam/NSurface.nam
** Node set Nfix1 has DOF 1(X), DOF 2(Y), DOF 3(Z) fixed
*BOUNDARY
Nfix1,1
Nfix1,2
Nfix1,3
Nfix1,4
Nfix1,5
Nfix1,6
**Add material named EL with elastic properties
*MATERIAL,NAME=EL
*ELASTIC
210e5,0.0

** Apply material EL to element set EALL
*SOLID SECTION, ELSET=EALL, MATERIAL=EL

** Design variable definition
*NSET, NSET=DES
1

*DESIGNVARIABLES, TYPE=COORDINATE
DES

*SOLID SECTION, ELSET=EALL, MATERIAL=EL
*STEP
*STATIC
**Begin setup for static analysis

** Define concentrated load on <nodeset>, <dof>, <magnitude>
*CLOAD
Nsurface, 3, -0.181818
*END STEP
s

*NODE FILE
 U
***EL FILE
** S, E
*END STEP


*STEP
*SENSITIVITY
*OBJECTIVE
STRAINENERGY
*END STEP
